<?xml version="1.0" encoding="UTF-8"?>

<!-- generated on 2026-05-15 23:56:01.149069 by randomTrips.py v1_24_0+0000-b72eb3fabc8
<configuration>
    <net-file value="osm.net.xml.gz"/>
    <output-trip-file value="osm.passenger.trips.xml"/>
    <route-file value="osm.passenger.rou.xml"/>
    <prefix value="veh"/>
    <trip-attributes value="departLane=&quot;best&quot;"/>
    <fringe-start-attributes value="departSpeed=&quot;max&quot;"/>
    <vehicle-class value="passenger"/>
    <lanes value="True"/>
    <fringe-factor value="5"/>
    <allow-fringe.min-length value="1000.0"/>
    <edge-permission value="passenger"/>
    <via-edge-types value="highway.motorway,highway.motorway_link,highway.trunk_link,highway.primary_link,highway.secondary_link,highway.tertiary_link"/>
    <min-distance value="300.0"/>
    <min-distance.fringe value="10.0"/>
    <remove-loops value="True"/>
    <insertion-density value="12.0"/>
</configuration>
-->

<!-- generated on 2026-05-15 23:56:01 by Eclipse SUMO duarouter Version 1.24.0
<duarouterConfiguration xmlns:xsi="http://www.w3.org/2001/XMLSchema-instance" xsi:noNamespaceSchemaLocation="http://sumo.dlr.de/xsd/duarouterConfiguration.xsd">

    <input>
        <net-file value="osm.net.xml.gz"/>
        <route-files value="osm.passenger.trips.xml"/>
    </input>

    <output>
        <output-file value="osm.passenger.rou.xml"/>
        <alternatives-output value="NUL"/>
    </output>

    <processing>
        <remove-loops value="true"/>
    </processing>

    <time>
        <begin value="0.0"/>
        <end value="3600.0"/>
    </time>

    <report>
        <no-warnings value="true"/>
        <ignore-errors value="true"/>
        <no-step-log value="true"/>
    </report>

</duarouterConfiguration>
-->

<routes xmlns:xsi="http://www.w3.org/2001/XMLSchema-instance" xsi:noNamespaceSchemaLocation="http://sumo.dlr.de/xsd/routes_file.xsd">
    <vType id="veh_passenger" vClass="passenger"/>
    <vehicle id="veh0" type="veh_passenger" depart="0.00" departLane="best" departSpeed="max">
        <route edges="903105756#7 225638042#1"/>
    </vehicle>
    <vehicle id="veh1" type="veh_passenger" depart="44.31" departLane="best" departSpeed="max">
        <route edges="32802165#6 225638042#1 225638042#2"/>
    </vehicle>
    <vehicle id="veh2" type="veh_passenger" depart="88.63" departLane="best" departSpeed="max">
        <route edges="225638044#5 32802166#0 32802166#1"/>
    </vehicle>
    <vehicle id="veh3" type="veh_passenger" depart="132.94" departLane="best">
        <route edges="225638042#1 225638042#2 225638042#3 225638042#4 225638042#5 225638042#6 225638042#7"/>
    </vehicle>
    <vehicle id="veh4" type="veh_passenger" depart="177.26" departLane="best" departSpeed="max">
        <route edges="903105756#7 32802166#0 32802166#1"/>
    </vehicle>
    <vehicle id="veh5" type="veh_passenger" depart="221.57" departLane="best" departSpeed="max">
        <route edges="225638044#5 903105753#1 903105753#1.48"/>
    </vehicle>
    <vehicle id="veh6" type="veh_passenger" depart="265.89" departLane="best" departSpeed="max">
        <route edges="903179422#1 903105753#1 903105753#1.48"/>
    </vehicle>
    <vehicle id="veh7" type="veh_passenger" depart="310.20" departLane="best" departSpeed="max">
        <route edges="32802165#6 225638042#1 225638042#2 225638042#3 225638042#4 225638042#5 225638042#6"/>
    </vehicle>
    <vehicle id="veh8" type="veh_passenger" depart="354.51" departLane="best" departSpeed="max">
        <route edges="903179422#1 903105753#1 903105753#1.48"/>
    </vehicle>
    <vehicle id="veh9" type="veh_passenger" depart="398.83" departLane="best" departSpeed="max">
        <route edges="903179422#1 903105753#1 903105753#1.48"/>
    </vehicle>
    <vehicle id="veh10" type="veh_passenger" depart="443.14" departLane="best" departSpeed="max">
        <route edges="32802165#6 903105753#1"/>
    </vehicle>
    <vehicle id="veh11" type="veh_passenger" depart="487.46" departLane="best" departSpeed="max">
        <route edges="903179422#1 903105753#1 903105753#1.48"/>
    </vehicle>
    <vehicle id="veh12" type="veh_passenger" depart="531.77" departLane="best" departSpeed="max">
        <route edges="903105756#7 225638042#1 225638042#2"/>
    </vehicle>
    <vehicle id="veh13" type="veh_passenger" depart="576.09" departLane="best" departSpeed="max">
        <route edges="903105756#7 32802166#0 32802166#1"/>
    </vehicle>
    <vehicle id="veh14" type="veh_passenger" depart="620.40" departLane="best" departSpeed="max">
        <route edges="32802165#6 225638042#1 225638042#2 225638042#3 225638042#4 225638042#5 225638042#6 225638042#7"/>
    </vehicle>
    <vehicle id="veh15" type="veh_passenger" depart="664.71" departLane="best" departSpeed="max">
        <route edges="225638044#5 903179423#1"/>
    </vehicle>
    <vehicle id="veh16" type="veh_passenger" depart="709.03" departLane="best" departSpeed="max">
        <route edges="225638044#5 903105753#1 903105753#1.48"/>
    </vehicle>
    <vehicle id="veh17" type="veh_passenger" depart="753.34" departLane="best" departSpeed="max">
        <route edges="903179422#1 903105753#1 903105753#1.48"/>
    </vehicle>
    <vehicle id="veh18" type="veh_passenger" depart="797.66" departLane="best">
        <route edges="903105753#1 903105753#1.48"/>
    </vehicle>
    <vehicle id="veh19" type="veh_passenger" depart="841.97" departLane="best" departSpeed="max">
        <route edges="903179422#1 903105753#1 903105753#1.48"/>
    </vehicle>
    <vehicle id="veh20" type="veh_passenger" depart="886.29" departLane="best" departSpeed="max">
        <route edges="32802165#6 225638042#1 225638042#2 225638042#3 225638042#4 225638042#5 225638042#6 225638042#7"/>
    </vehicle>
    <vehicle id="veh21" type="veh_passenger" depart="930.60" departLane="best" departSpeed="max">
        <route edges="225638044#5 903179423#1"/>
    </vehicle>
    <vehicle id="veh22" type="veh_passenger" depart="974.91" departLane="best" departSpeed="max">
        <route edges="903105756#7 32802166#0 32802166#1"/>
    </vehicle>
    <vehicle id="veh23" type="veh_passenger" depart="1019.23" departLane="best" departSpeed="max">
        <route edges="903179422#1 32802166#0 32802166#1"/>
    </vehicle>
    <vehicle id="veh24" type="veh_passenger" depart="1063.54" departLane="best" departSpeed="max">
        <route edges="32802165#6 225638042#1 225638042#2 225638042#3 225638042#4 225638042#5 225638042#6 225638042#7"/>
    </vehicle>
    <vehicle id="veh25" type="veh_passenger" depart="1107.86" departLane="best" departSpeed="max">
        <route edges="903179422#1 32802166#0 32802166#1"/>
    </vehicle>
    <vehicle id="veh26" type="veh_passenger" depart="1152.17" departLane="best" departSpeed="max">
        <route edges="903105756#7 32802166#0 32802166#1"/>
    </vehicle>
    <vehicle id="veh27" type="veh_passenger" depart="1196.48" departLane="best" departSpeed="max">
        <route edges="903179422#1 32802166#0 32802166#1"/>
    </vehicle>
    <vehicle id="veh28" type="veh_passenger" depart="1240.80" departLane="best" departSpeed="max">
        <route edges="903105756#7 32802166#0 32802166#1"/>
    </vehicle>
    <vehicle id="veh29" type="veh_passenger" depart="1285.11" departLane="best" departSpeed="max">
        <route edges="225638044#5 903105753#1 903105753#1.48"/>
    </vehicle>
    <vehicle id="veh30" type="veh_passenger" depart="1329.43" departLane="best" departSpeed="max">
        <route edges="32802165#6 903179423#1"/>
    </vehicle>
    <vehicle id="veh31" type="veh_passenger" depart="1373.74" departLane="best" departSpeed="max">
        <route edges="32802165#6 225638042#1 225638042#2 225638042#3 225638042#4 225638042#5 225638042#6 225638042#7"/>
    </vehicle>
    <vehicle id="veh32" type="veh_passenger" depart="1418.06" departLane="best" departSpeed="max">
        <route edges="225638044#5 903105753#1 903105753#1.48"/>
    </vehicle>
    <vehicle id="veh33" type="veh_passenger" depart="1462.37" departLane="best" departSpeed="max">
        <route edges="903105756#7 225638042#1 225638042#2 225638042#3 225638042#4 225638042#5 225638042#6"/>
    </vehicle>
    <vehicle id="veh34" type="veh_passenger" depart="1506.68" departLane="best" departSpeed="max">
        <route edges="903105756#7 32802166#0 32802166#1"/>
    </vehicle>
    <vehicle id="veh35" type="veh_passenger" depart="1551.00" departLane="best" departSpeed="max">
        <route edges="903105756#7 32802166#0 32802166#1"/>
    </vehicle>
    <vehicle id="veh36" type="veh_passenger" depart="1595.31" departLane="best" departSpeed="max">
        <route edges="32802165#6 225638042#1 225638042#2 225638042#3"/>
    </vehicle>
    <vehicle id="veh37" type="veh_passenger" depart="1639.63" departLane="best" departSpeed="max">
        <route edges="903105756#7 225638042#1 225638042#2 225638042#3 225638042#4 225638042#5"/>
    </vehicle>
    <vehicle id="veh38" type="veh_passenger" depart="1683.94" departLane="best" departSpeed="max">
        <route edges="32802165#6 903105753#1"/>
    </vehicle>
    <vehicle id="veh39" type="veh_passenger" depart="1728.26" departLane="best" departSpeed="max">
        <route edges="225638044#5 903179423#1"/>
    </vehicle>
    <vehicle id="veh40" type="veh_passenger" depart="1772.57" departLane="best" departSpeed="max">
        <route edges="32802165#6 225638042#1 225638042#2 225638042#3 225638042#4 225638042#5 225638042#6 225638042#7"/>
    </vehicle>
    <vehicle id="veh41" type="veh_passenger" depart="1816.88" departLane="best" departSpeed="max">
        <route edges="225638044#5 32802166#0"/>
    </vehicle>
    <vehicle id="veh42" type="veh_passenger" depart="1861.20" departLane="best" departSpeed="max">
        <route edges="903179422#1 903105753#1 903105753#1.48"/>
    </vehicle>
    <vehicle id="veh43" type="veh_passenger" depart="1905.51" departLane="best" departSpeed="max">
        <route edges="32802165#6 903105753#1"/>
    </vehicle>
    <vehicle id="veh44" type="veh_passenger" depart="1949.83" departLane="best" departSpeed="max">
        <route edges="225638044#5 903179423#1"/>
    </vehicle>
    <vehicle id="veh45" type="veh_passenger" depart="1994.14" departLane="best" departSpeed="max">
        <route edges="225638044#5 903105753#1 903105753#1.48"/>
    </vehicle>
    <vehicle id="veh46" type="veh_passenger" depart="2038.46" departLane="best" departSpeed="max">
        <route edges="32802165#6 903105753#1 903105753#1.48"/>
    </vehicle>
    <vehicle id="veh47" type="veh_passenger" depart="2082.77" departLane="best" departSpeed="max">
        <route edges="225638044#5 32802166#0 32802166#1"/>
    </vehicle>
    <vehicle id="veh48" type="veh_passenger" depart="2127.08" departLane="best" departSpeed="max">
        <route edges="32802165#6 225638042#1 225638042#2 225638042#3 225638042#4 225638042#5 225638042#6 225638042#7"/>
    </vehicle>
    <vehicle id="veh49" type="veh_passenger" depart="2171.40" departLane="best" departSpeed="max">
        <route edges="225638044#5 903179423#1"/>
    </vehicle>
    <vehicle id="veh50" type="veh_passenger" depart="2215.71" departLane="best" departSpeed="max">
        <route edges="32802165#6 903179423#1"/>
    </vehicle>
    <vehicle id="veh51" type="veh_passenger" depart="2260.03" departLane="best" departSpeed="max">
        <route edges="32802165#6 225638042#1 225638042#2 225638042#3 225638042#4 225638042#5 225638042#6 225638042#7"/>
    </vehicle>
    <vehicle id="veh52" type="veh_passenger" depart="2304.34" departLane="best" departSpeed="max">
        <route edges="32802165#6 225638042#1 225638042#2 225638042#3"/>
    </vehicle>
    <vehicle id="veh53" type="veh_passenger" depart="2348.66" departLane="best" departSpeed="max">
        <route edges="32802165#6 903179423#1"/>
    </vehicle>
    <vehicle id="veh54" type="veh_passenger" depart="2392.97" departLane="best" departSpeed="max">
        <route edges="225638044#5 903105753#1 903105753#1.48"/>
    </vehicle>
    <vehicle id="veh55" type="veh_passenger" depart="2437.28" departLane="best">
        <route edges="903105753#1 903105753#1.48"/>
    </vehicle>
    <vehicle id="veh56" type="veh_passenger" depart="2481.60" departLane="best" departSpeed="max">
        <route edges="32802165#6 903179423#1"/>
    </vehicle>
    <vehicle id="veh57" type="veh_passenger" depart="2525.91" departLane="best" departSpeed="max">
        <route edges="32802165#6 903105753#1"/>
    </vehicle>
    <vehicle id="veh58" type="veh_passenger" depart="2570.23" departLane="best" departSpeed="max">
        <route edges="225638044#5 903105753#1 903105753#1.48"/>
    </vehicle>
    <vehicle id="veh59" type="veh_passenger" depart="2614.54" departLane="best" departSpeed="max">
        <route edges="225638044#5 32802166#0 32802166#1"/>
    </vehicle>
    <vehicle id="veh60" type="veh_passenger" depart="2658.86" departLane="best" departSpeed="max">
        <route edges="903105756#7 225638042#1 225638042#2 225638042#3 225638042#4 225638042#5 225638042#6 225638042#7"/>
    </vehicle>
    <vehicle id="veh61" type="veh_passenger" depart="2703.17" departLane="best" departSpeed="max">
        <route edges="32802165#6 903105753#1 903105753#1.48"/>
    </vehicle>
    <vehicle id="veh62" type="veh_passenger" depart="2747.48" departLane="best" departSpeed="max">
        <route edges="225638044#5 903179423#1"/>
    </vehicle>
    <vehicle id="veh63" type="veh_passenger" depart="2791.80" departLane="best" departSpeed="max">
        <route edges="32802165#6 225638042#1 225638042#2 225638042#3 225638042#4 225638042#5 225638042#6"/>
    </vehicle>
    <vehicle id="veh64" type="veh_passenger" depart="2836.11" departLane="best" departSpeed="max">
        <route edges="903179422#1 903105753#1 903105753#1.48"/>
    </vehicle>
    <vehicle id="veh65" type="veh_passenger" depart="2880.43" departLane="best" departSpeed="max">
        <route edges="903105756#7 903179423#1"/>
    </vehicle>
    <vehicle id="veh66" type="veh_passenger" depart="2924.74" departLane="best" departSpeed="max">
        <route edges="903105756#7 225638042#1"/>
    </vehicle>
    <vehicle id="veh67" type="veh_passenger" depart="2969.06" departLane="best" departSpeed="max">
        <route edges="903105756#7 903179423#1"/>
    </vehicle>
    <vehicle id="veh68" type="veh_passenger" depart="3013.37" departLane="best" departSpeed="max">
        <route edges="225638044#5 903105753#1 903105753#1.48"/>
    </vehicle>
    <vehicle id="veh69" type="veh_passenger" depart="3057.68" departLane="best" departSpeed="max">
        <route edges="903105756#7 225638042#1 225638042#2 225638042#3 225638042#4 225638042#5 225638042#6 225638042#7"/>
    </vehicle>
    <vehicle id="veh70" type="veh_passenger" depart="3102.00" departLane="best" departSpeed="max">
        <route edges="903105756#7 225638042#1 225638042#2 225638042#3 225638042#4 225638042#5 225638042#6 225638042#7"/>
    </vehicle>
    <vehicle id="veh71" type="veh_passenger" depart="3146.31" departLane="best" departSpeed="max">
        <route edges="32802165#6 903179423#1"/>
    </vehicle>
    <vehicle id="veh72" type="veh_passenger" depart="3190.63" departLane="best" departSpeed="max">
        <route edges="32802165#6 225638042#1 225638042#2 225638042#3 225638042#4 225638042#5 225638042#6 225638042#7"/>
    </vehicle>
    <vehicle id="veh73" type="veh_passenger" depart="3234.94" departLane="best" departSpeed="max">
        <route edges="903105756#7 225638042#1 225638042#2 225638042#3 225638042#4 225638042#5 225638042#6 225638042#7"/>
    </vehicle>
    <vehicle id="veh74" type="veh_passenger" depart="3279.26" departLane="best" departSpeed="max">
        <route edges="32802165#6 225638042#1"/>
    </vehicle>
    <vehicle id="veh75" type="veh_passenger" depart="3323.57" departLane="best" departSpeed="max">
        <route edges="903179422#1 32802166#0 32802166#1"/>
    </vehicle>
    <vehicle id="veh76" type="veh_passenger" depart="3367.88" departLane="best" departSpeed="max">
        <route edges="32802165#6 903179423#1"/>
    </vehicle>
    <vehicle id="veh77" type="veh_passenger" depart="3412.20" departLane="best" departSpeed="max">
        <route edges="903105756#7 903179423#1"/>
    </vehicle>
    <vehicle id="veh78" type="veh_passenger" depart="3456.51" departLane="best" departSpeed="max">
        <route edges="32802165#6 903105753#1 903105753#1.48"/>
    </vehicle>
    <vehicle id="veh79" type="veh_passenger" depart="3500.83" departLane="best" departSpeed="max">
        <route edges="32802165#6 903179423#1"/>
    </vehicle>
    <vehicle id="veh80" type="veh_passenger" depart="3545.14" departLane="best" departSpeed="max">
        <route edges="903105756#7 225638042#1 225638042#2 225638042#3 225638042#4"/>
    </vehicle>
    <vehicle id="veh81" type="veh_passenger" depart="3589.45" departLane="best" departSpeed="max">
        <route edges="225638044#5 903179423#1"/>
    </vehicle>
</routes>
